  
       XFOIL         Version 6.99
  
 Calculated polar for: NREL's S826 Airfoil                             
  
 1 1 Reynolds number fixed          Mach number fixed         
  
 xtrf =   1.000 (top)        1.000 (bottom)  
 Mach =   0.000     Re =     0.150 e 6     Ncrit =   3.000
  
   alpha    CL        CD       CDp       CM     Top_Xtr  Bot_Xtr
  ------ -------- --------- --------- -------- -------- --------
 -15.000  -0.4001   0.17304   0.16845  -0.0314   1.0000   0.0085
 -14.500  -0.3904   0.16733   0.16278  -0.0326   1.0000   0.0082
 -14.000  -0.3822   0.16117   0.15666  -0.0339   1.0000   0.0079
 -13.500  -0.3754   0.15471   0.15025  -0.0352   1.0000   0.0076
 -13.000  -0.3700   0.14801   0.14360  -0.0365   1.0000   0.0074
 -12.500  -0.3659   0.14123   0.13687  -0.0378   1.0000   0.0072
 -12.000  -0.3639   0.13405   0.12975  -0.0390   1.0000   0.0070
 -11.500  -0.3646   0.12637   0.12214  -0.0404   1.0000   0.0069
 -11.000  -0.3648   0.11751   0.11336  -0.0431   0.9993   0.0067
 -10.500  -0.3469   0.10591   0.10175  -0.0526   0.9938   0.0066
 -10.000  -0.3329   0.09460   0.09047  -0.0621   0.9882   0.0065
  -9.500  -0.3324   0.08103   0.07695  -0.0724   0.9814   0.0064
  -9.000  -0.3507   0.06436   0.06021  -0.0868   0.9706   0.0061
  -8.500  -0.3855   0.05290   0.04853  -0.0948   0.9483   0.0061
  -8.000  -0.3906   0.04169   0.03670  -0.1047   0.9211   0.0060
  -7.500  -0.3629   0.03227   0.02627  -0.1099   0.9005   0.0062
  -7.000  -0.3130   0.02676   0.01997  -0.1126   0.8859   0.0069
  -6.500  -0.2562   0.02371   0.01644  -0.1147   0.8716   0.0082
  -6.000  -0.1932   0.02119   0.01361  -0.1177   0.8567   0.0097
  -5.500  -0.1215   0.01912   0.01123  -0.1223   0.8414   0.0131
  -5.000  -0.0416   0.01734   0.00920  -0.1288   0.8238   0.0192
  -4.500   0.0452   0.01593   0.00755  -0.1367   0.8038   0.0354
  -4.000   0.1278   0.01473   0.00619  -0.1437   0.7802   0.0855
  -3.500   0.2090   0.01312   0.00534  -0.1515   0.7564   0.4015
  -3.000   0.2733   0.01330   0.00518  -0.1532   0.7324   0.4364
  -2.500   0.3341   0.01347   0.00503  -0.1542   0.7111   0.4541
  -1.500   0.4514   0.01355   0.00457  -0.1557   0.6748   0.4639
  -1.000   0.5088   0.01363   0.00447  -0.1563   0.6601   0.4684
  -0.500   0.5658   0.01374   0.00443  -0.1567   0.6463   0.4735
  -0.000   0.6220   0.01388   0.00450  -0.1570   0.6340   0.4780
   0.500   0.6784   0.01404   0.00458  -0.1574   0.6228   0.4837
   1.000   0.7341   0.01422   0.00477  -0.1576   0.6124   0.4886
   1.500   0.7899   0.01443   0.00499  -0.1579   0.6030   0.4947
   2.000   0.8451   0.01467   0.00529  -0.1580   0.5942   0.5002
   2.500   0.9002   0.01492   0.00564  -0.1582   0.5855   0.5064
   3.000   0.9549   0.01520   0.00606  -0.1582   0.5770   0.5130
   3.500   1.0089   0.01551   0.00653  -0.1581   0.5674   0.5195
   4.000   1.0611   0.01585   0.00701  -0.1576   0.5537   0.5270
   4.500   1.1102   0.01620   0.00751  -0.1565   0.5327   0.5344
   5.000   1.1577   0.01659   0.00805  -0.1551   0.5086   0.5422
   5.500   1.2038   0.01703   0.00868  -0.1534   0.4805   0.5508
   6.000   1.2469   0.01757   0.00938  -0.1512   0.4398   0.5603
   6.500   1.2759   0.01867   0.01021  -0.1465   0.3531   0.5695
   7.000   1.2909   0.02064   0.01177  -0.1398   0.2619   0.5789
   7.500   1.3076   0.02266   0.01358  -0.1339   0.1962   0.5894
   8.000   1.3264   0.02471   0.01555  -0.1286   0.1493   0.6013
   8.500   1.3453   0.02684   0.01769  -0.1237   0.1145   0.6146
   9.000   1.3632   0.02913   0.02008  -0.1190   0.0889   0.6295
   9.500   1.3796   0.03169   0.02279  -0.1146   0.0691   0.6475
  10.000   1.3941   0.03458   0.02586  -0.1105   0.0535   0.6686
  10.500   1.4060   0.03790   0.02938  -0.1068   0.0409   0.6951
  11.000   1.4171   0.04152   0.03327  -0.1035   0.0304   0.7317
  11.500   1.4248   0.04549   0.03757  -0.1004   0.0229   0.7950
  12.000   1.4269   0.04963   0.04207  -0.0970   0.0179   1.0000
  12.500   1.4333   0.05476   0.04744  -0.0955   0.0140   1.0000
  13.000   1.4374   0.06046   0.05339  -0.0944   0.0112   1.0000
  13.500   1.4388   0.06678   0.05998  -0.0939   0.0093   1.0000
  14.000   1.4380   0.07364   0.06715  -0.0938   0.0078   1.0000
  14.500   1.4339   0.08133   0.07518  -0.0945   0.0068   1.0000
  15.000   1.4278   0.08968   0.08387  -0.0961   0.0060   1.0000
  15.500   1.4185   0.09895   0.09351  -0.0985   0.0053   1.0000
  16.000   1.4063   0.10915   0.10409  -0.1021   0.0049   1.0000
  16.500   1.3916   0.12034   0.11563  -0.1070   0.0046   1.0000
  17.000   1.3744   0.13263   0.12827  -0.1135   0.0044   1.0000
  17.500   1.3556   0.14613   0.14214  -0.1217   0.0043   1.0000
  18.000   1.3346   0.16109   0.15747  -0.1316   0.0042   1.0000
  18.500   1.3128   0.17733   0.17402  -0.1430   0.0042   1.0000
  19.000   1.2916   0.19452   0.19148  -0.1553   0.0042   1.0000
  19.500   1.2751   0.21111   0.20829  -0.1670   0.0042   1.0000
  20.000   1.2552   0.23095   0.22832  -0.1803   0.0042   1.0000
  20.500   1.2381   0.25600   0.25325  -0.1952   0.0036   1.0000
  21.500   1.2581   0.27718   0.27430  -0.2094   0.0029   1.0000
  22.000   1.2704   0.28610   0.28318  -0.2155   0.0028   1.0000
  22.500   1.2838   0.29420   0.29125  -0.2213   0.0027   1.0000
  23.000   1.2981   0.30203   0.29906  -0.2271   0.0027   1.0000
  23.500   1.3119   0.30919   0.30621  -0.2326   0.0025   1.0000
  24.000   1.3268   0.31551   0.31254  -0.2381   0.0023   1.0000
  24.500   1.3407   0.32285   0.31985  -0.2437   0.0020   1.0000
  25.000   1.3549   0.32933   0.32632  -0.2491   0.0020   1.0000
