  
       XFOIL         Version 6.99
  
 Calculated polar for: NREL's S826 Airfoil                             
  
 1 1 Reynolds number fixed          Mach number fixed         
  
 xtrf =   1.000 (top)        1.000 (bottom)  
 Mach =   0.000     Re =     0.030 e 6     Ncrit =   3.000
  
   alpha    CL        CD       CDp       CM     Top_Xtr  Bot_Xtr
  ------ -------- --------- --------- -------- -------- --------
 -15.000  -0.3964   0.17914   0.16884  -0.0359   1.0000   0.0354
 -14.500  -0.3858   0.17321   0.16300  -0.0374   1.0000   0.0340
 -14.000  -0.3772   0.16717   0.15706  -0.0390   1.0000   0.0328
 -13.500  -0.3703   0.16098   0.15098  -0.0407   1.0000   0.0318
 -13.000  -0.3646   0.15465   0.14476  -0.0423   1.0000   0.0314
 -12.500  -0.3596   0.14828   0.13850  -0.0438   1.0000   0.0312
 -12.000  -0.3555   0.14178   0.13214  -0.0451   1.0000   0.0313
 -11.500  -0.3522   0.13529   0.12578  -0.0462   1.0000   0.0318
 -11.000  -0.3514   0.12850   0.11914  -0.0474   1.0000   0.0318
 -10.500  -0.3529   0.12153   0.11234  -0.0485   1.0000   0.0319
 -10.000  -0.3574   0.11424   0.10524  -0.0498   1.0000   0.0317
  -9.500  -0.3659   0.10655   0.09777  -0.0511   1.0000   0.0315
  -9.000  -0.3802   0.09839   0.08983  -0.0527   1.0000   0.0312
  -8.500  -0.4053   0.09010   0.08175  -0.0541   1.0000   0.0308
  -8.000  -0.4420   0.08289   0.07466  -0.0538   1.0000   0.0303
  -7.500  -0.4683   0.07594   0.06773  -0.0551   1.0000   0.0301
  -7.000  -0.4625   0.06632   0.05769  -0.0642   0.9901   0.0307
  -6.500  -0.4208   0.05809   0.04875  -0.0736   0.9728   0.0330
  -6.000  -0.3708   0.05102   0.04057  -0.0791   0.9562   0.0363
  -5.500  -0.3205   0.04663   0.03558  -0.0804   0.9393   0.0415
  -5.000  -0.2724   0.04341   0.03188  -0.0797   0.9215   0.0492
  -4.500  -0.2242   0.04080   0.02890  -0.0793   0.9029   0.0616
  -4.000  -0.1689   0.03782   0.02585  -0.0829   0.8846   0.0857
  -3.000  -0.0576   0.03683   0.02592  -0.0855   0.8473   0.5253
  -2.500   0.0001   0.03681   0.02509  -0.0858   0.8309   0.5508
  -2.000   0.0642   0.03613   0.02363  -0.0894   0.8144   0.5558
  -1.500   0.1340   0.03548   0.02233  -0.0940   0.8005   0.5615
  -1.000   0.1963   0.03519   0.02153  -0.0970   0.7850   0.5676
  -0.500   0.2605   0.03499   0.02092  -0.1002   0.7713   0.5743
  -0.000   0.3267   0.03490   0.02048  -0.1038   0.7586   0.5820
   0.500   0.3891   0.03498   0.02034  -0.1062   0.7463   0.5896
   1.000   0.4453   0.03540   0.02062  -0.1080   0.7326   0.5976
   1.500   0.5024   0.03591   0.02107  -0.1098   0.7200   0.6066
   2.000   0.5584   0.03656   0.02172  -0.1114   0.7078   0.6162
   2.500   0.6129   0.03735   0.02258  -0.1128   0.6959   0.6265
   3.000   0.6651   0.03829   0.02366  -0.1137   0.6842   0.6375
   3.500   0.7152   0.03935   0.02493  -0.1142   0.6724   0.6494
   4.000   0.7641   0.04050   0.02635  -0.1146   0.6605   0.6625
   4.500   0.8063   0.04205   0.02822  -0.1141   0.6467   0.6769
   5.000   0.8460   0.04372   0.03029  -0.1133   0.6317   0.6925
   5.500   0.8919   0.04500   0.03202  -0.1128   0.6175   0.7113
   6.500   0.9612   0.04846   0.03652  -0.1092   0.5808   0.7579
   7.000   0.9932   0.04999   0.03863  -0.1067   0.5593   0.7930
   7.500   1.0161   0.05158   0.04085  -0.1029   0.5341   0.8587
   8.000   1.0418   0.05355   0.04329  -0.1005   0.5040   1.0000
   8.500   1.0664   0.05611   0.04632  -0.0986   0.4684   1.0000
   9.000   1.0804   0.05969   0.05033  -0.0966   0.4258   1.0000
   9.500   1.1002   0.06259   0.05370  -0.0946   0.3784   1.0000
  10.000   1.1376   0.06301   0.05443  -0.0915   0.3235   1.0000
  10.500   1.1697   0.06418   0.05551  -0.0882   0.2614   1.0000
  11.000   1.1810   0.06860   0.05973  -0.0860   0.2110   1.0000
  11.500   1.1848   0.07446   0.06558  -0.0848   0.1732   1.0000
  12.000   1.1878   0.08085   0.07203  -0.0843   0.1439   1.0000
  12.500   1.1909   0.08749   0.07877  -0.0843   0.1211   1.0000
  13.000   1.1941   0.09451   0.08602  -0.0849   0.1023   1.0000
  13.500   1.1967   0.10206   0.09394  -0.0861   0.0870   1.0000
  14.000   1.1979   0.10996   0.10214  -0.0881   0.0751   1.0000
  14.500   1.1971   0.11867   0.11121  -0.0912   0.0656   1.0000
  15.000   1.1898   0.12954   0.12260  -0.0963   0.0585   1.0000
  15.500   1.1758   0.14280   0.13631  -0.1038   0.0540   1.0000
  16.000   1.1560   0.15918   0.15300  -0.1145   0.0508   1.0000
  16.500   1.1424   0.17518   0.16900  -0.1251   0.0477   1.0000
  17.000   1.1310   0.19287   0.18652  -0.1369   0.0447   1.0000
  17.500   1.1377   0.20269   0.19628  -0.1434   0.0407   1.0000
  18.000   1.1396   0.21558   0.20905  -0.1522   0.0377   1.0000
  18.500   1.1523   0.22336   0.21681  -0.1574   0.0344   1.0000
  19.000   1.1592   0.23494   0.22828  -0.1657   0.0322   1.0000
  19.500   1.1711   0.24367   0.23697  -0.1719   0.0299   1.0000
  20.000   1.1843   0.25137   0.24463  -0.1773   0.0279   1.0000
  20.500   1.1969   0.26058   0.25378  -0.1844   0.0266   1.0000
  21.500   1.2257   0.27551   0.26870  -0.1960   0.0238   1.0000
  22.000   1.2400   0.28257   0.27571  -0.2014   0.0230   1.0000
  22.500   1.2535   0.29001   0.28311  -0.2076   0.0223   1.0000
  23.000   1.2682   0.29701   0.29010  -0.2136   0.0215   1.0000
  23.500   1.2826   0.30366   0.29673  -0.2191   0.0212   1.0000
  24.000   1.2985   0.31031   0.30340  -0.2249   0.0210   1.0000
  24.500   1.3129   0.31649   0.30959  -0.2303   0.0207   1.0000
  25.000   1.3276   0.32253   0.31563  -0.2357   0.0202   1.0000

