  
       XFOIL         Version 6.99
  
 Calculated polar for: NREL's S826 Airfoil                             
  
 1 1 Reynolds number fixed          Mach number fixed         
  
 xtrf =   1.000 (top)        1.000 (bottom)  
 Mach =   0.000     Re =     0.300 e 6     Ncrit =   3.000
  
   alpha    CL        CD       CDp       CM     Top_Xtr  Bot_Xtr
  ------ -------- --------- --------- -------- -------- --------
 -15.000  -0.4075   0.17253   0.16930  -0.0284   1.0000   0.0038
 -14.500  -0.3941   0.16543   0.16222  -0.0316   0.9994   0.0039
 -14.000  -0.3806   0.15780   0.15460  -0.0352   0.9985   0.0038
 -13.500  -0.3674   0.15067   0.14748  -0.0385   0.9975   0.0040
 -13.000  -0.3546   0.14277   0.13960  -0.0425   0.9964   0.0047
 -12.500  -0.3436   0.13504   0.13189  -0.0461   0.9953   0.0046
 -12.000  -0.3304   0.12633   0.12319  -0.0511   0.9930   0.0045
 -11.500  -0.3127   0.11596   0.11283  -0.0589   0.9898   0.0044
 -11.000  -0.2972   0.10517   0.10204  -0.0670   0.9850   0.0042
 -10.500  -0.2880   0.09294   0.08983  -0.0763   0.9810   0.0042
 -10.000  -0.2970   0.07756   0.07451  -0.0868   0.9735   0.0039
  -9.500  -0.4188   0.04481   0.04129  -0.1075   0.9552   0.0036
  -9.000  -0.4486   0.03370   0.02946  -0.1133   0.9294   0.0035
  -8.500  -0.4255   0.02715   0.02217  -0.1162   0.9099   0.0036
  -8.000  -0.3767   0.02329   0.01781  -0.1190   0.8955   0.0038
  -7.500  -0.3169   0.02040   0.01451  -0.1225   0.8820   0.0040
  -7.000  -0.2439   0.01788   0.01162  -0.1281   0.8675   0.0044
  -6.500  -0.1523   0.01576   0.00913  -0.1374   0.8507   0.0050
  -6.000  -0.0620   0.01433   0.00741  -0.1463   0.8228   0.0070
  -5.500   0.0088   0.01340   0.00615  -0.1507   0.7879   0.0106
  -5.000   0.0700   0.01272   0.00520  -0.1529   0.7553   0.0173
  -4.500   0.1287   0.01217   0.00444  -0.1545   0.7261   0.0318
  -4.000   0.1873   0.01166   0.00381  -0.1560   0.7019   0.0652
  -3.500   0.2475   0.01096   0.00319  -0.1581   0.6809   0.1610
  -3.000   0.3091   0.01017   0.00290  -0.1608   0.6618   0.3993
  -2.500   0.3651   0.01030   0.00284  -0.1610   0.6456   0.4210
  -2.000   0.4210   0.01042   0.00281  -0.1611   0.6313   0.4342
  -1.500   0.4769   0.01052   0.00274  -0.1613   0.6181   0.4396
  -1.000   0.5328   0.01062   0.00274  -0.1615   0.6068   0.4434
  -0.500   0.5887   0.01074   0.00277  -0.1616   0.5963   0.4476
  -0.000   0.6445   0.01086   0.00283  -0.1618   0.5865   0.4521
   0.500   0.7003   0.01099   0.00295  -0.1620   0.5781   0.4565
   1.000   0.7559   0.01115   0.00310  -0.1622   0.5699   0.4617
   1.500   0.8113   0.01133   0.00330  -0.1623   0.5625   0.4663
   2.000   0.8668   0.01150   0.00353  -0.1625   0.5549   0.4716
   2.500   0.9220   0.01169   0.00380  -0.1626   0.5480   0.4770
   3.000   0.9762   0.01192   0.00410  -0.1625   0.5385   0.4827
   3.500   1.0281   0.01219   0.00443  -0.1619   0.5207   0.4881
   4.000   1.0782   0.01251   0.00479  -0.1610   0.4978   0.4947
   4.500   1.1281   0.01284   0.00520  -0.1600   0.4738   0.5009
   5.000   1.1757   0.01326   0.00566  -0.1586   0.4385   0.5073
   5.500   1.2121   0.01422   0.00634  -0.1553   0.3578   0.5143
   6.000   1.2400   0.01589   0.00759  -0.1508   0.2622   0.5211
   6.500   1.2682   0.01738   0.00882  -0.1463   0.1947   0.5283
   7.000   1.2977   0.01880   0.01012  -0.1422   0.1464   0.5359
   8.000   1.3552   0.02170   0.01299  -0.1342   0.0850   0.5536
   8.500   1.3811   0.02335   0.01468  -0.1300   0.0641   0.5629
   9.000   1.4048   0.02520   0.01660  -0.1258   0.0473   0.5735
   9.500   1.4251   0.02735   0.01883  -0.1215   0.0331   0.5855
  10.000   1.4444   0.02973   0.02135  -0.1175   0.0237   0.5985
  10.500   1.4623   0.03239   0.02420  -0.1138   0.0173   0.6135
  11.500   1.4903   0.03910   0.03133  -0.1074   0.0087   0.6522
  12.000   1.5015   0.04310   0.03560  -0.1049   0.0064   0.6788
  12.500   1.5110   0.04752   0.04032  -0.1029   0.0048   0.7150
  13.000   1.5183   0.05230   0.04546  -0.1011   0.0039   0.7744
  13.500   1.5176   0.05719   0.05077  -0.0985   0.0032   1.0000
  14.000   1.5221   0.06304   0.05689  -0.0979   0.0027   1.0000
  14.500   1.5234   0.06957   0.06369  -0.0978   0.0024   1.0000
  15.000   1.5218   0.07680   0.07120  -0.0982   0.0022   1.0000
  15.500   1.5183   0.08464   0.07934  -0.0993   0.0019   1.0000
  16.000   1.5122   0.09317   0.08818  -0.1011   0.0017   1.0000
  16.500   1.5033   0.10252   0.09783  -0.1039   0.0015   1.0000
  17.000   1.4915   0.11269   0.10831  -0.1075   0.0014   1.0000
  17.500   1.4786   0.12354   0.11948  -0.1123   0.0013   1.0000
  18.000   1.4620   0.13560   0.13188  -0.1187   0.0012   1.0000
  18.500   1.4448   0.14841   0.14501  -0.1263   0.0012   1.0000
  19.000   1.4238   0.16274   0.15966  -0.1358   0.0011   1.0000
  19.500   1.3970   0.17927   0.17652  -0.1474   0.0011   1.0000
  20.000   1.3680   0.19751   0.19506  -0.1607   0.0012   1.0000
  20.500   1.3375   0.21791   0.21570  -0.1756   0.0014   1.0000
  21.000   1.3162   0.23677   0.23472  -0.1890   0.0014   1.0000
  21.500   1.3055   0.25386   0.25193  -0.2009   0.0013   1.0000
  22.000   1.2886   0.27986   0.27794  -0.2162   0.0010   1.0000
  22.500   1.2981   0.29065   0.28868  -0.2233   0.0009   1.0000
  23.000   1.3098   0.30115   0.29913  -0.2301   0.0008   1.0000
  23.500   1.3227   0.30948   0.30742  -0.2360   0.0008   1.0000
  24.000   1.3372   0.31722   0.31515  -0.2419   0.0008   1.0000
  24.500   1.3508   0.32449   0.32240  -0.2473   0.0007   1.0000
  25.000   1.3647   0.33114   0.32905  -0.2527   0.0008   1.0000
