  
       XFOIL         Version 6.99
  
 Calculated polar for: NREL's S826 Airfoil                             
  
 1 1 Reynolds number fixed          Mach number fixed         
  
 xtrf =   1.000 (top)        1.000 (bottom)  
 Mach =   0.000     Re =     0.050 e 6     Ncrit =   3.000
  
   alpha    CL        CD       CDp       CM     Top_Xtr  Bot_Xtr
  ------ -------- --------- --------- -------- -------- --------
 -15.000  -0.3930   0.17664   0.16866  -0.0345   1.0000   0.0229
 -14.500  -0.3840   0.17048   0.16257  -0.0363   1.0000   0.0215
 -14.000  -0.3774   0.16397   0.15613  -0.0382   1.0000   0.0202
 -13.500  -0.3688   0.15789   0.15013  -0.0394   1.0000   0.0197
 -13.000  -0.3621   0.15159   0.14391  -0.0406   1.0000   0.0193
 -12.500  -0.3567   0.14521   0.13761  -0.0419   1.0000   0.0189
 -12.000  -0.3531   0.13860   0.13110  -0.0431   1.0000   0.0188
 -11.500  -0.3513   0.13173   0.12434  -0.0444   1.0000   0.0189
 -11.000  -0.3512   0.12476   0.11751  -0.0456   1.0000   0.0191
 -10.500  -0.3540   0.11746   0.11034  -0.0468   1.0000   0.0193
 -10.000  -0.3594   0.11002   0.10306  -0.0480   1.0000   0.0195
  -9.500  -0.3684   0.10229   0.09550  -0.0492   1.0000   0.0194
  -9.000  -0.3826   0.09397   0.08738  -0.0506   1.0000   0.0193
  -8.500  -0.4076   0.08536   0.07895  -0.0520   1.0000   0.0190
  -8.000  -0.4250   0.07404   0.06760  -0.0619   0.9877   0.0187
  -7.500  -0.4214   0.06118   0.05430  -0.0791   0.9642   0.0186
  -6.500  -0.3499   0.04315   0.03442  -0.0947   0.9258   0.0202
  -6.000  -0.3004   0.03874   0.02944  -0.0963   0.9087   0.0233
  -5.500  -0.2510   0.03567   0.02591  -0.0945   0.8927   0.0274
  -5.000  -0.2028   0.03348   0.02340  -0.0926   0.8756   0.0337
  -4.500  -0.1485   0.03124   0.02088  -0.0939   0.8581   0.0448
  -4.000  -0.0756   0.02827   0.01770  -0.1012   0.8433   0.0722
  -3.500   0.0064   0.02521   0.01596  -0.1114   0.8287   0.4096
  -3.000   0.0674   0.02659   0.01678  -0.1108   0.8120   0.4935
  -2.500   0.1307   0.02635   0.01597  -0.1123   0.7959   0.5074
  -2.000   0.2000   0.02573   0.01480  -0.1158   0.7810   0.5124
  -1.500   0.2709   0.02522   0.01381  -0.1196   0.7669   0.5181
  -1.000   0.3367   0.02495   0.01318  -0.1222   0.7515   0.5239
  -0.500   0.4030   0.02474   0.01267  -0.1249   0.7375   0.5300
  -0.000   0.4689   0.02464   0.01230  -0.1276   0.7243   0.5372
   0.500   0.5283   0.02475   0.01230  -0.1289   0.7105   0.5434
   1.000   0.5890   0.02492   0.01237  -0.1306   0.6977   0.5510
   1.500   0.6488   0.02518   0.01260  -0.1320   0.6857   0.5588
   2.000   0.7061   0.02553   0.01300  -0.1330   0.6742   0.5665
   2.500   0.7630   0.02597   0.01354  -0.1339   0.6631   0.5750
   3.000   0.8183   0.02649   0.01423  -0.1345   0.6523   0.5842
   3.500   0.8724   0.02711   0.01506  -0.1349   0.6415   0.5940
   4.000   0.9249   0.02779   0.01603  -0.1351   0.6304   0.6045
   4.500   0.9763   0.02851   0.01706  -0.1349   0.6185   0.6157
   5.000   1.0281   0.02917   0.01809  -0.1346   0.6056   0.6281
   5.500   1.0698   0.03013   0.01948  -0.1328   0.5887   0.6413
   6.000   1.1131   0.03087   0.02064  -0.1309   0.5690   0.6567
   6.500   1.1500   0.03162   0.02183  -0.1277   0.5446   0.6733
   7.000   1.1798   0.03247   0.02315  -0.1235   0.5160   0.6923
   7.500   1.2007   0.03374   0.02490  -0.1184   0.4819   0.7150
   8.000   1.2133   0.03559   0.02726  -0.1127   0.4386   0.7435
   8.500   1.2287   0.03719   0.02916  -0.1072   0.3758   0.7861
   9.000   1.2356   0.03884   0.03065  -0.1005   0.3031   1.0000
   9.500   1.2378   0.04327   0.03476  -0.0965   0.2389   1.0000
  10.000   1.2361   0.04866   0.04000  -0.0937   0.1918   1.0000
  10.500   1.2365   0.05436   0.04570  -0.0917   0.1553   1.0000
  11.000   1.2382   0.06027   0.05171  -0.0905   0.1270   1.0000
  11.500   1.2408   0.06637   0.05794  -0.0896   0.1046   1.0000
  12.000   1.2440   0.07266   0.06442  -0.0892   0.0866   1.0000
  12.500   1.2463   0.07932   0.07130  -0.0892   0.0723   1.0000
  13.000   1.2489   0.08623   0.07850  -0.0896   0.0599   1.0000
  13.500   1.2496   0.09366   0.08620  -0.0906   0.0503   1.0000
  14.000   1.2492   0.10151   0.09437  -0.0922   0.0426   1.0000
  14.500   1.2477   0.10985   0.10308  -0.0946   0.0364   1.0000
  15.000   1.2446   0.11892   0.11255  -0.0980   0.0316   1.0000
  15.500   1.2390   0.12867   0.12257  -0.1027   0.0283   1.0000
  16.000   1.2307   0.14006   0.13451  -0.1088   0.0253   1.0000
  16.500   1.2217   0.15180   0.14655  -0.1161   0.0235   1.0000
  17.000   1.2045   0.16754   0.16270  -0.1266   0.0225   1.0000
  18.000   1.1638   0.20878   0.20400  -0.1538   0.0209   1.0000
  18.500   1.1704   0.21895   0.21412  -0.1608   0.0191   1.0000
  19.000   1.1745   0.23207   0.22710  -0.1695   0.0177   1.0000
  19.500   1.1837   0.24238   0.23734  -0.1765   0.0165   1.0000
  20.000   1.1962   0.24988   0.24480  -0.1820   0.0151   1.0000
  20.500   1.2081   0.26021   0.25507  -0.1893   0.0143   1.0000
  21.000   1.2208   0.26881   0.26363  -0.1955   0.0135   1.0000
  21.500   1.2357   0.27609   0.27090  -0.2012   0.0125   1.0000
  22.000   1.2493   0.28352   0.27828  -0.2068   0.0119   1.0000
  22.500   1.2633   0.29115   0.28589  -0.2127   0.0118   1.0000
  23.000   1.2780   0.29858   0.29329  -0.2187   0.0115   1.0000
  23.500   1.2922   0.30548   0.30017  -0.2243   0.0109   1.0000
  24.000   1.3078   0.31211   0.30682  -0.2301   0.0105   1.0000
  24.500   1.3221   0.31837   0.31308  -0.2353   0.0102   1.0000
  25.000   1.3367   0.32478   0.31947  -0.2408   0.0105   1.0000

