  
       XFOIL         Version 6.99
  
 Calculated polar for: NREL's S826 Airfoil                             
  
 1 1 Reynolds number fixed          Mach number fixed         
  
 xtrf =   1.000 (top)        1.000 (bottom)  
 Mach =   0.000     Re =     0.500 e 6     Ncrit =   3.000
  
   alpha    CL        CD       CDp       CM     Top_Xtr  Bot_Xtr
  ------ -------- --------- --------- -------- -------- --------
 -15.000  -0.3564   0.16324   0.16063  -0.0461   0.9927   0.0025
 -14.500  -0.3431   0.15640   0.15380  -0.0492   0.9920   0.0026
 -14.000  -0.3321   0.14870   0.14612  -0.0524   0.9913   0.0025
 -13.500  -0.3201   0.14108   0.13851  -0.0559   0.9905   0.0025
 -13.000  -0.3070   0.13354   0.13097  -0.0598   0.9896   0.0027
 -12.500  -0.2918   0.12452   0.12196  -0.0655   0.9879   0.0027
 -12.000  -0.2778   0.11509   0.11254  -0.0715   0.9841   0.0029
 -11.500  -0.2646   0.10387   0.10132  -0.0796   0.9814   0.0032
 -11.000  -0.2638   0.09329   0.09077  -0.0853   0.9776   0.0031
 -10.500  -0.2818   0.07741   0.07495  -0.0949   0.9736   0.0030
  -9.500  -0.4771   0.02707   0.02302  -0.1227   0.9304   0.0026
  -8.500  -0.3935   0.01983   0.01487  -0.1271   0.8983   0.0028
  -8.000  -0.3169   0.01719   0.01187  -0.1341   0.8852   0.0029
  -7.500  -0.2174   0.01501   0.00932  -0.1455   0.8647   0.0032
  -7.000  -0.1429   0.01369   0.00757  -0.1512   0.8210   0.0034
  -6.500  -0.0865   0.01288   0.00643  -0.1527   0.7798   0.0038
  -6.000  -0.0318   0.01223   0.00549  -0.1537   0.7450   0.0047
  -5.500   0.0235   0.01171   0.00473  -0.1545   0.7148   0.0063
  -5.000   0.0798   0.01125   0.00413  -0.1555   0.6908   0.0121
  -4.500   0.1368   0.01086   0.00360  -0.1565   0.6697   0.0224
  -4.000   0.1945   0.01048   0.00314  -0.1576   0.6502   0.0447
  -3.500   0.2528   0.01011   0.00276  -0.1589   0.6339   0.0885
  -3.000   0.3175   0.00881   0.00214  -0.1627   0.6197   0.3641
  -2.500   0.3741   0.00886   0.00210  -0.1630   0.6065   0.3965
  -2.000   0.4305   0.00893   0.00208  -0.1633   0.5949   0.4142
  -1.500   0.4870   0.00902   0.00208  -0.1636   0.5849   0.4237
  -1.000   0.5433   0.00911   0.00208  -0.1638   0.5751   0.4282
  -0.500   0.5996   0.00920   0.00211  -0.1641   0.5666   0.4320
  -0.000   0.6557   0.00930   0.00218  -0.1643   0.5590   0.4360
   1.000   0.7676   0.00954   0.00241  -0.1647   0.5447   0.4446
   1.500   0.8233   0.00969   0.00258  -0.1649   0.5382   0.4495
   2.000   0.8788   0.00983   0.00277  -0.1650   0.5319   0.4541
   2.500   0.9337   0.01001   0.00299  -0.1651   0.5227   0.4590
   3.000   0.9864   0.01025   0.00323  -0.1646   0.5037   0.4644
   3.500   1.0382   0.01053   0.00352  -0.1641   0.4806   0.4698
   4.000   1.0895   0.01085   0.00384  -0.1634   0.4556   0.4749
   4.500   1.1373   0.01135   0.00424  -0.1621   0.4073   0.4811
   5.000   1.1752   0.01261   0.00507  -0.1592   0.3122   0.4870
   5.500   1.2118   0.01400   0.00608  -0.1562   0.2281   0.4928
   6.000   1.2497   0.01517   0.00704  -0.1534   0.1710   0.4987
   6.500   1.2847   0.01624   0.00798  -0.1500   0.1297   0.5056
   7.000   1.3193   0.01731   0.00899  -0.1466   0.0987   0.5127
   7.100   1.3259   0.01753   0.00921  -0.1459   0.0934   0.5142
   7.200   1.3329   0.01774   0.00942  -0.1452   0.0889   0.5156
   7.300   1.3394   0.01798   0.00965  -0.1445   0.0839   0.5169
   7.500   1.3523   0.01845   0.01011  -0.1430   0.0747   0.5196
   8.500   1.4110   0.02117   0.01283  -0.1351   0.0369   0.5357
   9.000   1.4380   0.02270   0.01443  -0.1311   0.0260   0.5445
   9.500   1.4628   0.02443   0.01625  -0.1270   0.0184   0.5535
  10.000   1.4848   0.02642   0.01837  -0.1229   0.0123   0.5635
  11.000   1.5207   0.03146   0.02370  -0.1149   0.0049   0.5877
  11.500   1.5359   0.03451   0.02695  -0.1115   0.0034   0.6018
  12.000   1.5504   0.03788   0.03053  -0.1086   0.0025   0.6187
  12.500   1.5632   0.04167   0.03457  -0.1061   0.0019   0.6394
  13.000   1.5739   0.04596   0.03913  -0.1042   0.0015   0.6656
  13.500   1.5838   0.05061   0.04408  -0.1027   0.0012   0.7010
  14.000   1.5915   0.05584   0.04966  -0.1018   0.0010   0.7547
  14.500   1.5910   0.06110   0.05539  -0.1000   0.0009   1.0000
  15.000   1.5933   0.06742   0.06196  -0.0998   0.0008   1.0000
  15.500   1.5929   0.07440   0.06919  -0.1001   0.0007   1.0000
  16.000   1.5896   0.08209   0.07713  -0.1011   0.0006   1.0000
  16.500   1.5837   0.09050   0.08581  -0.1027   0.0006   1.0000
  17.000   1.5748   0.09967   0.09525  -0.1051   0.0005   1.0000
  17.500   1.5635   0.10958   0.10544  -0.1084   0.0005   1.0000
  18.000   1.5494   0.12039   0.11654  -0.1129   0.0005   1.0000
  18.500   1.5339   0.13188   0.12831  -0.1185   0.0005   1.0000
  19.000   1.5138   0.14480   0.14152  -0.1258   0.0004   1.0000
  19.500   1.4936   0.15821   0.15523  -0.1342   0.0004   1.0000
  20.000   1.4685   0.17337   0.17068  -0.1446   0.0004   1.0000
  20.500   1.4438   0.18925   0.18684  -0.1562   0.0005   1.0000
  21.000   1.4131   0.20746   0.20533  -0.1698   0.0005   1.0000
  21.500   1.3810   0.22784   0.22596  -0.1850   0.0005   1.0000
  22.000   1.3529   0.24890   0.24722  -0.2003   0.0005   1.0000
  22.500   1.3421   0.26546   0.26390  -0.2121   0.0006   1.0000
  23.000   1.3375   0.28144   0.27995  -0.2230   0.0005   1.0000
  23.500   1.3355   0.29946   0.29799  -0.2340   0.0004   1.0000
  24.500   1.3572   0.32486   0.32327  -0.2493   0.0004   1.0000
  25.000   1.3708   0.33176   0.33016  -0.2547   0.0004   1.0000
