  
       XFOIL         Version 6.99
  
 Calculated polar for: NREL's S826 Airfoil                             
  
 1 1 Reynolds number fixed          Mach number fixed         
  
 xtrf =   1.000 (top)        1.000 (bottom)  
 Mach =   0.000     Re =     0.005 e 6     Ncrit =   3.000
  
   alpha    CL        CD       CDp       CM     Top_Xtr  Bot_Xtr
  ------ -------- --------- --------- -------- -------- --------
 -15.000  -0.4414   0.20231   0.17719  -0.0314   1.0000   0.1794
 -14.500  -0.4300   0.19671   0.17177  -0.0332   1.0000   0.1801
 -14.000  -0.4191   0.19105   0.16629  -0.0348   1.0000   0.1811
 -13.500  -0.4088   0.18539   0.16082  -0.0363   1.0000   0.1832
 -13.000  -0.4006   0.17995   0.15559  -0.0376   1.0000   0.1859
 -12.500  -0.3950   0.17470   0.15060  -0.0389   1.0000   0.1883
 -12.000  -0.3872   0.16888   0.14501  -0.0399   1.0000   0.1914
 -11.500  -0.3795   0.16292   0.13929  -0.0406   1.0000   0.1962
 -11.000  -0.3768   0.15737   0.13407  -0.0414   1.0000   0.2006
 -10.500  -0.3691   0.15125   0.12817  -0.0416   1.0000   0.2068
 -10.000  -0.3661   0.14549   0.12273  -0.0418   1.0000   0.2130
  -9.500  -0.3654   0.13978   0.11734  -0.0418   1.0000   0.2206
  -9.000  -0.3622   0.13391   0.11174  -0.0413   1.0000   0.2298
  -8.500  -0.3619   0.12822   0.10638  -0.0404   1.0000   0.2405
  -8.000  -0.3602   0.12260   0.10110  -0.0390   1.0000   0.2543
  -7.500  -0.3610   0.11719   0.09603  -0.0372   1.0000   0.2699
  -7.000  -0.3615   0.11191   0.09110  -0.0350   1.0000   0.2903
  -6.500  -0.3612   0.10672   0.08625  -0.0327   1.0000   0.3169
  -6.000  -0.3617   0.10169   0.08154  -0.0300   1.0000   0.3522
  -5.500  -0.3653   0.09680   0.07697  -0.0272   1.0000   0.3984
  -5.000  -0.3680   0.09197   0.07244  -0.0234   1.0000   0.4698
  -4.500  -0.3626   0.08721   0.06767  -0.0157   1.0000   0.6124
  -4.000  -0.1872   0.07499   0.05112  -0.0325   1.0000   0.9219
  -3.500  -0.1489   0.07190   0.04668  -0.0359   1.0000   0.9543
  -3.000  -0.1202   0.06982   0.04363  -0.0372   1.0000   0.9787
  -2.500  -0.0993   0.06830   0.04138  -0.0370   1.0000   1.0000
  -2.000  -0.1005   0.06734   0.04000  -0.0328   1.0000   1.0000
  -1.500  -0.1025   0.06641   0.03872  -0.0284   1.0000   1.0000
  -1.000  -0.1049   0.06550   0.03748  -0.0241   1.0000   1.0000
  -0.500  -0.1062   0.06463   0.03622  -0.0201   1.0000   1.0000
  -0.000  -0.1001   0.06394   0.03509  -0.0174   1.0000   1.0000
   0.500  -0.0829   0.06366   0.03423  -0.0169   1.0000   1.0000
   1.000  -0.0546   0.06387   0.03375  -0.0182   1.0000   1.0000
   1.500  -0.0183   0.06460   0.03377  -0.0210   1.0000   1.0000
   2.000   0.0230   0.06579   0.03430  -0.0246   1.0000   1.0000
   2.500   0.0673   0.06739   0.03529  -0.0286   1.0000   1.0000
   3.000   0.1121   0.06934   0.03672  -0.0326   1.0000   1.0000
   3.500   0.1568   0.07161   0.03859  -0.0366   1.0000   1.0000
   4.000   0.2005   0.07416   0.04084  -0.0404   1.0000   1.0000
   4.500   0.2429   0.07697   0.04347  -0.0440   1.0000   1.0000
   5.000   0.2841   0.08005   0.04649  -0.0475   1.0000   1.0000
   5.500   0.3288   0.08375   0.05025  -0.0519   0.9938   1.0000
   6.000   0.3832   0.08852   0.05522  -0.0582   0.9748   1.0000
   6.500   0.4343   0.09338   0.06039  -0.0639   0.9549   1.0000
   7.000   0.4842   0.09851   0.06599  -0.0695   0.9332   1.0000
   7.500   0.5288   0.10349   0.07155  -0.0742   0.9092   1.0000
   8.000   0.5745   0.10899   0.07770  -0.0791   0.8827   1.0000
   8.500   0.6182   0.11470   0.08420  -0.0838   0.8536   1.0000
   9.000   0.6591   0.12056   0.09091  -0.0880   0.8218   1.0000
   9.500   0.6969   0.12651   0.09771  -0.0918   0.7875   1.0000
  10.000   0.7319   0.13258   0.10470  -0.0951   0.7506   1.0000
  10.500   0.7666   0.13898   0.11201  -0.0984   0.7111   1.0000
  11.000   0.7997   0.14556   0.11954  -0.1015   0.6697   1.0000
  11.500   0.8295   0.15209   0.12695  -0.1041   0.6273   1.0000
  12.000   0.8549   0.15841   0.13411  -0.1064   0.5852   1.0000
  12.500   0.8778   0.16475   0.14118  -0.1087   0.5440   1.0000
  13.000   0.8999   0.17124   0.14833  -0.1110   0.5044   1.0000
  13.500   0.9220   0.17795   0.15572  -0.1134   0.4665   1.0000
  14.000   0.9412   0.18451   0.16280  -0.1159   0.4321   1.0000
  14.500   0.9598   0.19117   0.16993  -0.1187   0.4005   1.0000
  15.000   0.9792   0.19816   0.17742  -0.1218   0.3713   1.0000
  15.500   0.9946   0.20478   0.18436  -0.1251   0.3463   1.0000
  16.000   1.0117   0.21180   0.19170  -0.1287   0.3233   1.0000
  16.500   1.0282   0.21887   0.19905  -0.1324   0.3027   1.0000
  17.000   1.0463   0.22638   0.20686  -0.1364   0.2843   1.0000
  17.500   1.0613   0.23326   0.21394  -0.1407   0.2688   1.0000
  18.000   1.0792   0.24076   0.22162  -0.1448   0.2535   1.0000
  18.500   1.0941   0.24755   0.22856  -0.1496   0.2416   1.0000
  19.000   1.1098   0.25440   0.23555  -0.1544   0.2302   1.0000
  19.500   1.1259   0.26138   0.24270  -0.1591   0.2205   1.0000
  20.000   1.1424   0.26846   0.24989  -0.1637   0.2115   1.0000
  20.500   1.1584   0.27507   0.25663  -0.1690   0.2043   1.0000
  21.000   1.1733   0.28121   0.26284  -0.1741   0.1974   1.0000
  21.500   1.1923   0.28912   0.27086  -0.1791   0.1917   1.0000
  22.000   1.2053   0.29424   0.27610  -0.1845   0.1871   1.0000
  22.500   1.2225   0.30137   0.28336  -0.1895   0.1828   1.0000
  23.000   1.2385   0.30773   0.28977  -0.1949   0.1801   1.0000
  23.500   1.2528   0.31320   0.29533  -0.2003   0.1776   1.0000
  24.000   1.2693   0.31953   0.30177  -0.2060   0.1765   1.0000
  24.500   1.2846   0.32570   0.30809  -0.2114   0.1766   1.0000
  25.000   1.3001   0.33188   0.31438  -0.2169   0.1772   1.0000
