  
       XFOIL         Version 6.99
  
 Calculated polar for: NREL's S826 Airfoil                             
  
 1 1 Reynolds number fixed          Mach number fixed         
  
 xtrf =   1.000 (top)        1.000 (bottom)  
 Mach =   0.000     Re =     0.075 e 6     Ncrit =   3.000
  
   alpha    CL        CD       CDp       CM     Top_Xtr  Bot_Xtr
  ------ -------- --------- --------- -------- -------- --------
 -15.000  -0.3941   0.17483   0.16832  -0.0334   1.0000   0.0140
 -14.500  -0.3855   0.16852   0.16205  -0.0351   1.0000   0.0132
 -14.000  -0.3771   0.16242   0.15601  -0.0365   1.0000   0.0130
 -13.500  -0.3706   0.15597   0.14964  -0.0381   1.0000   0.0132
 -13.000  -0.3666   0.14909   0.14283  -0.0398   1.0000   0.0134
 -12.500  -0.3612   0.14271   0.13652  -0.0410   1.0000   0.0133
 -12.000  -0.3582   0.13586   0.12975  -0.0423   1.0000   0.0133
 -11.500  -0.3574   0.12860   0.12260  -0.0436   1.0000   0.0134
 -11.000  -0.3570   0.12171   0.11581  -0.0446   1.0000   0.0133
 -10.500  -0.3597   0.11443   0.10864  -0.0456   1.0000   0.0132
 -10.000  -0.3652   0.10708   0.10142  -0.0465   1.0000   0.0130
  -9.500  -0.3755   0.09921   0.09371  -0.0476   1.0000   0.0129
  -9.000  -0.3778   0.08826   0.08285  -0.0543   0.9955   0.0127
  -8.500  -0.3837   0.07327   0.06783  -0.0684   0.9830   0.0124
  -8.000  -0.4001   0.06070   0.05500  -0.0822   0.9616   0.0122
  -7.500  -0.3926   0.04972   0.04339  -0.0942   0.9361   0.0122
  -7.000  -0.3589   0.04080   0.03354  -0.1010   0.9163   0.0126
  -6.500  -0.3103   0.03491   0.02683  -0.1044   0.8993   0.0143
  -6.000  -0.2563   0.03061   0.02185  -0.1050   0.8851   0.0165
  -5.500  -0.2066   0.02829   0.01930  -0.1039   0.8684   0.0201
  -5.000  -0.1511   0.02648   0.01730  -0.1040   0.8534   0.0257
  -4.500  -0.0855   0.02444   0.01498  -0.1080   0.8367   0.0373
  -4.000  -0.0038   0.02199   0.01230  -0.1164   0.8225   0.0697
  -3.500   0.0846   0.01957   0.01096  -0.1267   0.8079   0.4132
  -3.000   0.1535   0.02015   0.01107  -0.1285   0.7905   0.4700
  -2.500   0.2224   0.02001   0.01044  -0.1311   0.7725   0.4846
  -2.000   0.2910   0.01967   0.00967  -0.1339   0.7550   0.4891
  -1.500   0.3580   0.01940   0.00900  -0.1366   0.7376   0.4948
  -1.000   0.4209   0.01931   0.00865  -0.1383   0.7210   0.4995
  -0.500   0.4843   0.01926   0.00834  -0.1403   0.7055   0.5058
  -0.000   0.5452   0.01932   0.00826  -0.1416   0.6914   0.5111
   0.500   0.6051   0.01943   0.00827  -0.1429   0.6778   0.5176
   1.000   0.6640   0.01960   0.00842  -0.1439   0.6654   0.5240
   1.500   0.7227   0.01983   0.00864  -0.1449   0.6540   0.5305
   2.000   0.7814   0.02010   0.00896  -0.1460   0.6432   0.5382
   2.500   0.8381   0.02044   0.00942  -0.1466   0.6330   0.5452
   3.000   0.8944   0.02082   0.00996  -0.1471   0.6232   0.5530
   3.500   0.9499   0.02125   0.01058  -0.1475   0.6134   0.5616
   4.000   1.0039   0.02174   0.01130  -0.1476   0.6028   0.5709
   4.500   1.0554   0.02226   0.01211  -0.1471   0.5899   0.5803
   5.000   1.1058   0.02275   0.01289  -0.1463   0.5741   0.5907
   5.500   1.1511   0.02325   0.01368  -0.1445   0.5522   0.6017
   6.000   1.1921   0.02382   0.01458  -0.1419   0.5256   0.6139
   6.500   1.2300   0.02446   0.01556  -0.1387   0.4950   0.6269
   7.000   1.2617   0.02526   0.01670  -0.1346   0.4546   0.6415
   7.500   1.2848   0.02630   0.01789  -0.1291   0.3870   0.6581
   8.000   1.2934   0.02841   0.01959  -0.1219   0.2988   0.6764
   8.500   1.2954   0.03153   0.02252  -0.1151   0.2302   0.6976
   9.000   1.2973   0.03500   0.02599  -0.1092   0.1809   0.7242
   9.500   1.3001   0.03868   0.02982  -0.1042   0.1442   0.7623
  10.000   1.3004   0.04242   0.03385  -0.0993   0.1173   0.8456
  10.500   1.3025   0.04680   0.03838  -0.0960   0.0955   1.0000
  11.000   1.3097   0.05167   0.04340  -0.0940   0.0771   1.0000
  11.500   1.3165   0.05686   0.04876  -0.0925   0.0622   1.0000
  12.000   1.3220   0.06244   0.05455  -0.0914   0.0501   1.0000
  12.500   1.3253   0.06854   0.06086  -0.0908   0.0407   1.0000
  13.000   1.3272   0.07510   0.06771  -0.0906   0.0328   1.0000
  13.500   1.3261   0.08240   0.07531  -0.0912   0.0270   1.0000
  14.000   1.3213   0.09051   0.08372  -0.0925   0.0229   1.0000
  14.500   1.3155   0.09918   0.09278  -0.0945   0.0196   1.0000
  15.000   1.3073   0.10865   0.10263  -0.0975   0.0173   1.0000
  15.500   1.2966   0.11902   0.11335  -0.1019   0.0157   1.0000
  16.000   1.2851   0.13015   0.12486  -0.1074   0.0145   1.0000
  16.500   1.2728   0.14214   0.13725  -0.1143   0.0134   1.0000
  17.000   1.2598   0.15509   0.15054  -0.1226   0.0127   1.0000
  17.500   1.2475   0.16866   0.16439  -0.1319   0.0122   1.0000
  18.000   1.2300   0.18515   0.18123  -0.1433   0.0119   1.0000
  18.500   1.2048   0.20708   0.20336  -0.1579   0.0118   1.0000
  19.000   1.1907   0.22849   0.22460  -0.1711   0.0111   1.0000
  19.500   1.1977   0.23920   0.23524  -0.1784   0.0100   1.0000
  20.000   1.2059   0.24989   0.24584  -0.1855   0.0092   1.0000
  20.500   1.2173   0.26030   0.25618  -0.1927   0.0087   1.0000
  21.000   1.2297   0.26876   0.26461  -0.1987   0.0081   1.0000
  21.500   1.2438   0.27650   0.27231  -0.2046   0.0074   1.0000
  22.000   1.2568   0.28501   0.28078  -0.2107   0.0070   1.0000
  22.500   1.2708   0.29271   0.28845  -0.2165   0.0069   1.0000
  23.000   1.2855   0.30016   0.29588  -0.2223   0.0068   1.0000
  23.500   1.2996   0.30702   0.30273  -0.2278   0.0064   1.0000
  24.000   1.3151   0.31355   0.30927  -0.2334   0.0061   1.0000
  24.500   1.3290   0.31963   0.31533  -0.2386   0.0057   1.0000
  25.000   1.3435   0.32612   0.32182  -0.2441   0.0057   1.0000

